Version 4
SHEET 1 1924 680
WIRE -704 -960 -704 -976
WIRE -704 -848 -704 -880
WIRE -704 -848 -784 -848
WIRE -784 -816 -784 -848
WIRE -704 -816 -704 -848
WIRE -704 -720 -704 -736
WIRE 144 -112 64 -112
WIRE 304 -112 208 -112
WIRE 1104 -96 1040 -96
WIRE 1232 -96 1184 -96
WIRE 1280 -96 1232 -96
WIRE 1392 -96 1360 -96
WIRE 1040 -64 1040 -96
WIRE -688 -48 -848 -48
WIRE 656 -32 560 -32
WIRE 800 -32 720 -32
WIRE -848 48 -848 -48
WIRE -800 48 -848 48
WIRE 1232 48 1232 -96
WIRE 1280 48 1232 48
WIRE -688 64 -688 -48
WIRE -688 64 -736 64
WIRE -480 64 -688 64
WIRE -240 64 -416 64
WIRE 64 64 64 -112
WIRE 64 64 -160 64
WIRE 144 64 64 64
WIRE 1392 64 1392 -96
WIRE 1392 64 1344 64
WIRE 1456 64 1392 64
WIRE 1616 64 1520 64
WIRE -1232 80 -1440 80
WIRE -1152 80 -1232 80
WIRE -1040 80 -1088 80
WIRE -928 80 -960 80
WIRE -800 80 -928 80
WIRE 304 80 304 -112
WIRE 304 80 208 80
WIRE 384 80 304 80
WIRE 416 80 384 80
WIRE 560 80 560 -32
WIRE 560 80 496 80
WIRE 592 80 560 80
WIRE 688 80 672 80
WIRE 704 80 688 80
WIRE 800 80 800 -32
WIRE 800 80 784 80
WIRE 864 80 800 80
WIRE 1056 80 944 80
WIRE 1280 80 1056 80
WIRE 144 96 128 96
WIRE 128 128 128 96
WIRE 1616 128 1616 64
WIRE -1232 144 -1232 80
WIRE -928 144 -928 80
WIRE 688 144 688 80
WIRE -400 160 -576 160
WIRE -352 160 -400 160
WIRE -240 160 -240 64
WIRE -240 160 -272 160
WIRE 48 160 -240 160
WIRE 48 176 48 160
WIRE -400 240 -400 160
WIRE -1232 272 -1232 224
WIRE -928 272 -928 224
WIRE -576 272 -576 160
WIRE 48 272 48 240
WIRE 384 272 384 80
WIRE 416 272 384 272
WIRE 688 272 688 208
WIRE 688 272 496 272
WIRE 864 272 688 272
WIRE 1056 272 1056 80
WIRE 1056 272 944 272
WIRE -1440 320 -1440 80
WIRE -400 352 -400 304
WIRE -400 352 -576 352
WIRE -272 352 -400 352
WIRE -160 352 -160 64
WIRE -160 352 -192 352
WIRE -128 352 -160 352
WIRE 48 352 -48 352
WIRE 1616 368 1616 208
WIRE 688 384 688 272
WIRE 768 384 688 384
WIRE 1056 400 1056 272
WIRE 1056 400 832 400
WIRE -400 416 -400 352
WIRE 768 416 688 416
WIRE -1440 432 -1440 400
WIRE 48 480 48 432
WIRE 688 480 688 416
WIRE -576 560 -576 432
WIRE -400 560 -400 480
WIRE -400 560 -576 560
WIRE -336 560 -400 560
WIRE 48 560 48 544
WIRE 48 560 -256 560
WIRE 304 560 304 80
WIRE 304 560 48 560
FLAG -784 -816 0
FLAG -704 -976 Vcc
FLAG -704 -720 -Vcc
FLAG 176 112 -Vcc
FLAG 176 48 Vcc
FLAG 128 128 0
FLAG -1440 432 0
FLAG -768 96 -Vcc
FLAG -768 32 Vcc
FLAG -928 272 0
FLAG -1232 272 0
FLAG 1312 96 -Vcc
FLAG 1312 32 Vcc
FLAG 1616 368 0
FLAG 1040 -64 0
FLAG 800 432 -Vcc
FLAG 800 368 Vcc
FLAG 688 480 0
SYMBOL Opamps\\AD823 176 16 R0
SYMATTR InstName U1
SYMBOL voltage -704 -976 R0
WINDOW 123 0 0 Left 2
WINDOW 39 0 0 Left 2
SYMATTR InstName V1
SYMATTR Value 9
SYMBOL voltage -704 -832 R0
WINDOW 123 0 0 Left 2
WINDOW 39 0 0 Left 2
SYMATTR InstName V2
SYMATTR Value 9
SYMBOL cap 64 240 R180
WINDOW 0 24 56 Left 2
WINDOW 3 24 8 Left 2
SYMATTR InstName C2
SYMATTR Value 10n
SYMBOL res 32 256 R0
SYMATTR InstName R1
SYMATTR Value {a}
SYMBOL res 32 336 R0
SYMATTR InstName R2
SYMATTR Value {100001 - a}
SYMBOL cap 32 480 R0
SYMATTR InstName C3
SYMATTR Value 10n
SYMBOL res -240 544 R90
WINDOW 0 0 56 VBottom 2
WINDOW 3 32 56 VTop 2
SYMATTR InstName R3
SYMATTR Value 10k
SYMBOL res -32 336 R90
WINDOW 0 0 56 VBottom 2
WINDOW 3 32 56 VTop 2
SYMATTR InstName R4
SYMATTR Value 3.3k
SYMBOL res -176 336 R90
WINDOW 0 0 56 VBottom 2
WINDOW 3 32 56 VTop 2
SYMATTR InstName R5
SYMATTR Value 10k
SYMBOL res -256 144 R90
WINDOW 0 0 56 VBottom 2
WINDOW 3 32 56 VTop 2
SYMATTR InstName R6
SYMATTR Value 10k
SYMBOL cap -416 240 R0
SYMATTR InstName C4
SYMATTR Value 22n
SYMBOL cap -416 416 R0
SYMATTR InstName C5
SYMATTR Value 22n
SYMBOL res -592 256 R0
SYMATTR InstName R7
SYMATTR Value {b}
SYMBOL res -592 336 R0
SYMATTR InstName R8
SYMATTR Value {100001 - b}
SYMBOL cap -416 48 R90
WINDOW 0 0 32 VBottom 2
WINDOW 3 32 32 VTop 2
SYMATTR InstName C6
SYMATTR Value 470n
SYMBOL voltage -1440 304 R0
WINDOW 123 24 124 Left 2
WINDOW 39 24 152 Left 2
SYMATTR Value2 AC 0.1
SYMATTR InstName V3
SYMATTR Value SINE(0 .1 1k)
SYMBOL cap 144 -96 R270
WINDOW 0 32 32 VTop 2
WINDOW 3 0 32 VBottom 2
SYMATTR InstName C7
SYMATTR Value 330p
SYMBOL Opamps\\AD823 -768 0 R0
SYMATTR InstName U2
SYMBOL cap -1088 64 R90
WINDOW 0 0 32 VBottom 2
WINDOW 3 32 32 VTop 2
SYMATTR InstName C8
SYMATTR Value 470n
SYMBOL res -944 128 R0
SYMATTR InstName R10
SYMATTR Value 2.2Meg
SYMBOL res -1248 128 R0
SYMATTR InstName R11
SYMATTR Value 10Meg
SYMBOL res -944 64 R90
WINDOW 0 0 56 VBottom 2
WINDOW 3 32 56 VTop 2
SYMATTR InstName R12
SYMATTR Value 1Meg
SYMBOL Opamps\\AD823 1312 0 R0
SYMATTR InstName U3
SYMBOL res 1600 112 R0
SYMATTR InstName R13
SYMATTR Value 1Meg
SYMBOL cap 1520 48 R90
WINDOW 0 0 32 VBottom 2
WINDOW 3 32 32 VTop 2
SYMATTR InstName C9
SYMATTR Value 10µ
SYMBOL res 1376 -112 R90
WINDOW 0 0 56 VBottom 2
WINDOW 3 32 56 VTop 2
SYMATTR InstName R9
SYMATTR Value 2.2k
SYMBOL res 1200 -112 R90
WINDOW 0 0 56 VBottom 2
WINDOW 3 32 56 VTop 2
SYMATTR InstName R14
SYMATTR Value 4.7k
SYMBOL Opamps\\AD823 800 336 R0
SYMATTR InstName U4
SYMBOL res 960 256 R90
WINDOW 0 0 56 VBottom 2
WINDOW 3 32 56 VTop 2
SYMATTR InstName R15
SYMATTR Value 680k
SYMBOL res 512 256 R90
WINDOW 0 0 56 VBottom 2
WINDOW 3 32 56 VTop 2
SYMATTR InstName R16
SYMATTR Value 680k
SYMBOL res 512 64 R90
WINDOW 0 0 56 VBottom 2
WINDOW 3 32 56 VTop 2
SYMATTR InstName R17
SYMATTR Value 15k
SYMBOL res 688 64 R90
WINDOW 0 0 56 VBottom 2
WINDOW 3 32 56 VTop 2
SYMATTR InstName R18
SYMATTR Value {c}
SYMBOL res 800 64 R90
WINDOW 0 0 56 VBottom 2
WINDOW 3 32 56 VTop 2
SYMATTR InstName R19
SYMATTR Value {100001-c}
SYMBOL res 960 64 R90
WINDOW 0 0 56 VBottom 2
WINDOW 3 32 56 VTop 2
SYMATTR InstName R20
SYMATTR Value 15k
SYMBOL cap 720 -48 R90
WINDOW 0 0 32 VBottom 2
WINDOW 3 32 32 VTop 2
SYMATTR InstName C1
SYMATTR Value 3.3n
SYMBOL cap 672 144 R0
SYMATTR InstName C10
SYMATTR Value 3.3n
TEXT -776 -1048 Left 1 ;Bipolar power supply
TEXT -848 -152 Left 2 !.ac dec 100 20 20k
TEXT -848 -288 Left 2 !.param a 50k
TEXT -848 -224 Left 2 !.param b 50k
TEXT -416 -376 Left 2 !.step param c 1 100k 10k
RECTANGLE Normal -592 -656 -816 -1072 2
