Version 4
SHEET 1 1036 680
WIRE -320 -96 -320 -144
WIRE 16 0 16 -48
WIRE 768 0 288 0
WIRE 896 0 848 0
WIRE 208 112 208 80
WIRE 288 112 288 0
WIRE 288 112 208 112
WIRE 320 112 288 112
WIRE 496 112 384 112
WIRE 208 128 208 112
WIRE 496 160 496 112
WIRE -416 176 -576 176
WIRE -192 176 -352 176
WIRE -64 176 -112 176
WIRE 16 176 16 80
WIRE 16 176 -64 176
WIRE 144 176 16 176
WIRE 208 240 208 224
WIRE 320 240 208 240
WIRE -576 256 -576 176
WIRE 16 272 16 176
WIRE 320 272 320 240
WIRE 208 288 208 240
WIRE 496 304 496 240
WIRE -64 336 -64 176
WIRE -64 336 -80 336
WIRE 320 368 320 352
WIRE -80 384 -80 336
WIRE 208 432 208 368
WIRE 320 432 208 432
WIRE -576 448 -576 336
WIRE 16 448 16 352
WIRE 208 448 208 432
WIRE 496 448 496 384
WIRE -80 544 -80 448
WIRE 896 544 896 0
WIRE 896 544 -80 544
FLAG -320 -96 0
FLAG -576 448 0
FLAG 16 448 0
FLAG 208 448 0
FLAG 496 448 0
FLAG -320 -224 9V
FLAG 208 0 9V
FLAG 16 -48 9V
DATAFLAG 208 240 ""
DATAFLAG 208 112 ""
SYMBOL npn 144 128 R0
SYMATTR InstName Q1
SYMATTR Value BC547C
SYMBOL res 192 272 R0
SYMATTR InstName R1
SYMATTR Value 330
SYMBOL res 192 -16 R0
SYMATTR InstName R2
SYMATTR Value 10k
SYMBOL res 0 -16 R0
SYMATTR InstName R3
SYMATTR Value 1Meg
SYMBOL res 0 256 R0
SYMATTR InstName R4
SYMATTR Value 100k
SYMBOL res 480 288 R0
SYMATTR InstName R5
SYMATTR Value {c}
SYMBOL res 480 144 R0
SYMATTR InstName R6
SYMATTR Value {10001-c}
SYMBOL cap -352 160 R90
WINDOW 0 0 32 VBottom 2
WINDOW 3 32 32 VTop 2
SYMATTR InstName C1
SYMATTR Value 1µ
SYMBOL cap 384 96 R90
WINDOW 0 0 32 VBottom 2
WINDOW 3 32 32 VTop 2
SYMATTR InstName C2
SYMATTR Value 10µ
SYMBOL voltage -320 -240 R0
WINDOW 123 0 0 Left 2
WINDOW 39 0 0 Left 2
SYMATTR InstName V1
SYMATTR Value 9
SYMBOL voltage -576 240 R0
WINDOW 123 24 124 Left 2
WINDOW 39 24 152 Left 2
SYMATTR Value2 AC .1
SYMATTR SpiceLine Rser=5k
SYMATTR InstName V2
SYMATTR Value SINE(0 .1 1k)
SYMBOL cap 304 368 R0
SYMATTR InstName C3
SYMATTR Value 3.3µ
SYMBOL res 304 256 R0
SYMATTR InstName R7
SYMATTR Value {b}
SYMBOL res 864 -16 R90
WINDOW 0 0 56 VBottom 2
WINDOW 3 32 56 VTop 2
SYMATTR InstName R9
SYMATTR Value 1Meg
SYMBOL cap -96 384 R0
SYMATTR InstName C4
SYMATTR Value 100n
SYMBOL res -96 160 R90
WINDOW 0 0 56 VBottom 2
WINDOW 3 32 56 VTop 2
SYMATTR InstName R10
SYMATTR Value 33k
TEXT -728 -40 Left 2 !.ac dec 10ms 20 20k
TEXT -664 128 Left 2 !;tran 10ms
TEXT -1136 288 Left 2 !.step dec param b 1 5k 2
TEXT -1080 368 Left 2 !.step dec param c 10 10k 2
TEXT -320 80 Left 2 ;Sets overall attenutation \nwhen in mellow mode
TEXT 696 -112 Left 2 ;Sets range reduction of treble\npot when in mellow mode
